9826528
  -OEChem-05172505583D

 40 41  0     1  0  0  0  0  0999 V2000
    6.8082    3.0947    0.5871 I   0  0  0  0  0  0  0  0  0  0  0  0
    3.0337   -1.8022   -0.7627 F   0  0  0  0  0  0  0  0  0  0  0  0
    2.2768   -4.4117   -0.5648 F   0  0  0  0  0  0  0  0  0  0  0  0
    1.9399    2.5585   -1.6433 F   0  0  0  0  0  0  0  0  0  0  0  0
   -3.6674    0.3033    0.5909 O   0  0  0  0  0  0  0  0  0  0  0  0
   -6.2794    1.0850    1.3233 O   0  0  0  0  0  0  0  0  0  0  0  0
   -7.9366    2.1640   -0.6202 O   0  0  0  0  0  0  0  0  0  0  0  0
   -1.0528    0.6885    1.0318 O   0  0  0  0  0  0  0  0  0  0  0  0
    1.2671    0.2587   -0.2258 N   0  0  0  0  0  0  0  0  0  0  0  0
   -2.7341   -0.7084    0.2953 N   0  0  0  0  0  0  0  0  0  0  0  0
    0.8606   -1.0900   -0.1188 C   0  0  0  0  0  0  0  0  0  0  0  0
   -0.4221   -1.4360    0.2543 C   0  0  0  0  0  0  0  0  0  0  0  0
   -5.8018    1.2537   -0.0134 C   0  0  1  0  0  0  0  0  0  0  0  0
   -4.7674    0.1720   -0.3036 C   0  0  0  0  0  0  0  0  0  0  0  0
    2.5084    0.8957   -0.0450 C   0  0  0  0  0  0  0  0  0  0  0  0
    1.7790   -2.1022   -0.3977 C   0  0  0  0  0  0  0  0  0  0  0  0
   -0.8258   -2.7525    0.3605 C   0  0  0  0  0  0  0  0  0  0  0  0
   -6.9944    1.1505   -0.9551 C   0  0  0  0  0  0  0  0  0  0  0  0
   -1.4256   -0.3821    0.5588 C   0  0  0  0  0  0  0  0  0  0  0  0
    1.3950   -3.4394   -0.2972 C   0  0  0  0  0  0  0  0  0  0  0  0
    0.0927   -3.7645    0.0818 C   0  0  0  0  0  0  0  0  0  0  0  0
    2.8196    2.0485   -0.7696 C   0  0  0  0  0  0  0  0  0  0  0  0
    3.4349    0.3758    0.8614 C   0  0  0  0  0  0  0  0  0  0  0  0
    4.0510    2.6782   -0.5885 C   0  0  0  0  0  0  0  0  0  0  0  0
    4.6662    1.0055    1.0427 C   0  0  0  0  0  0  0  0  0  0  0  0
    4.9745    2.1566    0.3176 C   0  0  0  0  0  0  0  0  0  0  0  0
   -5.3509    2.2507   -0.0556 H   0  0  0  0  0  0  0  0  0  0  0  0
   -5.2159   -0.8199   -0.1644 H   0  0  0  0  0  0  0  0  0  0  0  0
   -4.4096    0.2627   -1.3363 H   0  0  0  0  0  0  0  0  0  0  0  0
    0.5305    0.8867   -0.5345 H   0  0  0  0  0  0  0  0  0  0  0  0
   -7.5018    0.1843   -0.8644 H   0  0  0  0  0  0  0  0  0  0  0  0
   -6.6915    1.2935   -1.9966 H   0  0  0  0  0  0  0  0  0  0  0  0
   -1.8208   -3.0451    0.6803 H   0  0  0  0  0  0  0  0  0  0  0  0
   -0.2035   -4.8060    0.1658 H   0  0  0  0  0  0  0  0  0  0  0  0
   -3.0749   -1.5460   -0.1634 H   0  0  0  0  0  0  0  0  0  0  0  0
    3.2127   -0.5032    1.4607 H   0  0  0  0  0  0  0  0  0  0  0  0
    4.2704    3.5740   -1.1637 H   0  0  0  0  0  0  0  0  0  0  0  0
    5.3690    0.5860    1.7582 H   0  0  0  0  0  0  0  0  0  0  0  0
   -6.6824    0.2024    1.3894 H   0  0  0  0  0  0  0  0  0  0  0  0
   -8.1925    2.0287    0.3083 H   0  0  0  0  0  0  0  0  0  0  0  0
  1 26  1  0  0  0  0
  2 16  1  0  0  0  0
  3 20  1  0  0  0  0
  4 22  1  0  0  0  0
  5 10  1  0  0  0  0
  5 14  1  0  0  0  0
  6 13  1  0  0  0  0
  6 39  1  0  0  0  0
  7 18  1  0  0  0  0
  7 40  1  0  0  0  0
  8 19  2  0  0  0  0
  9 11  1  0  0  0  0
  9 15  1  0  0  0  0
  9 30  1  0  0  0  0
 10 19  1  0  0  0  0
 10 35  1  0  0  0  0
 11 12  2  0  0  0  0
 11 16  1  0  0  0  0
 12 17  1  0  0  0  0
 12 19  1  0  0  0  0
 13 14  1  0  0  0  0
 13 18  1  0  0  0  0
 13 27  1  0  0  0  0
 14 28  1  0  0  0  0
 14 29  1  0  0  0  0
 15 22  2  0  0  0  0
 15 23  1  0  0  0  0
 16 20  2  0  0  0  0
 17 21  2  0  0  0  0
 17 33  1  0  0  0  0
 18 31  1  0  0  0  0
 18 32  1  0  0  0  0
 20 21  1  0  0  0  0
 21 34  1  0  0  0  0
 22 24  1  0  0  0  0
 23 25  2  0  0  0  0
 23 36  1  0  0  0  0
 24 26  2  0  0  0  0
 24 37  1  0  0  0  0
 25 26  1  0  0  0  0
 25 38  1  0  0  0  0
M  END
> <PUBCHEM_COMPOUND_CID>
9826528

> <PUBCHEM_CONFORMER_RMSD>
1

> <PUBCHEM_CONFORMER_DIVERSEORDER>
2
43
39
217
341
320
247
74
122
175
152
167
198
73
136
266
134
261
33
30
129
75
224
164
281
155
171
169
172
250
93
227
27
339
60
102
135
243
170
300
206
166
58
113
54
288
343
35
226
108
313
10
194
46
178
286
100
23
325
40
265
84
38
3
140
28
114
331
147
22
256
284
144
338
298
232
123
79
90
25
154
125
302
262
47
184
168
111
295
322
72
213
19
173
335
161
117
329
297
5
70
124
177
110
174
65
225
165
118
263
16
62
275
4
141
156
42
193
228
241
289
290
15
317
162
143
92
260
253
131
267
137
104
216
59
304
138
203
323
296
52
29
63
249
274
192
163
215
270
121
7
283
223
324
61
242
12
204
148
316
271
9
294
299
127
95
26
176
207
185
87
245
219
208
97
277
109
105
36
315
44
21
238
189
107
183
157
326
1
186
69
258
45
17
126
180
240
205
76
34
14
239
278
188
31
139
153
83
130
146
128
301
222
142
132
85
220
273
71
318
342
18
202
32
254
191
20
99
212
98
101
292
91
37
159
244
248
293
158
68
24
78
119
321
280
57
182
51
55
310
340
251
81
88
237
287
209
195
221
201
306
199
56
336
82
106
112
8
151
210
314
66
257
234
307
11
269
41
252
231
311
233
53
77
116
181
337
115
333
308
133
246
211
64
276
272
197
150
89
334
327
268
196
86
330
303
67
332
264
160
48
103
230
218
291
259
80
319
149
96
49
312
255
305
235
50
190
214
285
187
229
236
279
309
94
200
6
328
282
179
120
145
13

> <PUBCHEM_MMFF94_PARTIAL_CHARGES>
35
1 -0.08
10 -0.39
11 0.1
12 0.09
13 0.28
14 0.28
15 0.1
16 0.19
17 -0.15
18 0.28
19 0.54
2 -0.19
20 0.19
21 -0.15
22 0.19
23 -0.15
24 -0.15
25 -0.15
26 0.08
3 -0.19
30 0.4
33 0.15
34 0.15
35 0.37
36 0.15
37 0.15
38 0.15
39 0.4
4 -0.19
40 0.4
5 -0.32
6 -0.68
7 -0.68
8 -0.57
9 -0.6

> <PUBCHEM_EFFECTIVE_ROTOR_COUNT>
8

> <PUBCHEM_PHARMACOPHORE_FEATURES>
11
1 1 hydrophobe
1 10 donor
1 6 acceptor
1 6 donor
1 7 acceptor
1 7 donor
1 8 acceptor
1 9 cation
1 9 donor
6 11 12 16 17 20 21 rings
6 15 22 23 24 25 26 rings

> <PUBCHEM_HEAVY_ATOM_COUNT>
26

> <PUBCHEM_ATOM_DEF_STEREO_COUNT>
1

> <PUBCHEM_ATOM_UDEF_STEREO_COUNT>
0

> <PUBCHEM_BOND_DEF_STEREO_COUNT>
0

> <PUBCHEM_BOND_UDEF_STEREO_COUNT>
0

> <PUBCHEM_ISOTOPIC_ATOM_COUNT>
0

> <PUBCHEM_COMPONENT_COUNT>
1

> <PUBCHEM_CACTVS_TAUTO_COUNT>
3

> <PUBCHEM_CONFORMER_ID>
0095F0E000000002

> <PUBCHEM_MMFF94_ENERGY>
79.1306

> <PUBCHEM_FEATURE_SELFOVERLAP>
55.83

> <PUBCHEM_SHAPE_FINGERPRINT>
10411042 1 17690560788937616830
10595046 47 18272083873901347501
11135609 127 18267855109036472021
11297750 10 17681547044336495550
12107183 9 18335690664433330194
12293681 160 17846785143107960624
12403259 118 17897167037872366024
12403259 327 16515687779346697456
12769317 202 18342170077296693153
13540713 4 18336283292115972723
14117953 113 18408604764670412980
14123256 34 8935010277875701321
14251764 30 8502387632301673616
14294032 229 18127696143843362003
14461889 52 18260835925741868859
14747282 540 18113057133966975796
15238133 3 17531251716307699804
15420108 30 18338505456676031030
15439362 3 18411981347662175902
16752209 62 17910389825449848666
19427546 62 18408886222593795963
1979834 28 18187375315726961093
20157964 124 18410855430728152413
20554085 129 17988064682506644320
20612939 158 18270119007682937011
20642791 105 18122906696513661170
20715895 44 18409165523757606425
21298829 104 18411982464364813393
21304303 282 17985253325616781478
21403212 168 18411408506731102282
22149856 69 18194430908271418139
22950370 63 9295022279135885689
23559900 14 18339367365911752851
335352 9 18411984646666440910
3411729 13 18260824882315275210
3633792 109 18272655636806166816
4073 2 18408604760981756075
474 4 18410858758858522947
5385378 56 18411424985808447400
59755656 215 18339366270952944652
6327066 14 18338514256831775420
77188 2 17763465015639926374
7970288 3 8862676684728412201
9981440 41 18265900335521910642

> <PUBCHEM_SHAPE_MULTIPOLES>
491.74
16.43
4.76
1.02
21.72
5.29
-0.01
-24.58
0.71
-2.35
-0.93
-0.06
-0.42
0.74

> <PUBCHEM_SHAPE_SELFOVERLAP>
1023.311

> <PUBCHEM_SHAPE_VOLUME>
282.6

> <PUBCHEM_COORDINATE_TYPE>
2
5
10

$$$$
