9907093
  -OEChem-05172505513D

 51 54  0     1  0  0  0  0  0999 V2000
    0.2341   -5.1845   -0.5237 O   0  0  0  0  0  0  0  0  0  0  0  0
   -4.6530    0.0232    0.9987 O   0  0  0  0  0  0  0  0  0  0  0  0
   -1.0109   -2.7743    0.1880 N   0  0  0  0  0  0  0  0  0  0  0  0
   -2.6532    0.9990    0.2551 N   0  0  0  0  0  0  0  0  0  0  0  0
   -0.7941   -0.4278   -0.1601 N   0  0  0  0  0  0  0  0  0  0  0  0
    1.7462    1.7755    0.2259 N   0  0  0  0  0  0  0  0  0  0  0  0
   -0.5069    1.9512   -0.5323 C   0  0  0  0  0  0  0  0  0  0  0  0
   -1.8148   -3.9695   -0.0681 C   0  0  0  0  0  0  0  0  0  0  0  0
    0.3651   -3.0424    0.6066 C   0  0  0  0  0  0  0  0  0  0  0  0
    0.9130    1.7269   -0.9516 C   0  0  1  0  0  0  0  0  0  0  0  0
   -1.3302    0.7561   -0.1322 C   0  0  0  0  0  0  0  0  0  0  0  0
   -1.5499   -1.5216    0.2079 C   0  0  0  0  0  0  0  0  0  0  0  0
   -1.0673   -4.8826   -1.0326 C   0  0  0  0  0  0  0  0  0  0  0  0
    1.0176   -3.9963   -0.3869 C   0  0  0  0  0  0  0  0  0  0  0  0
   -1.0723    3.1667   -0.4983 C   0  0  0  0  0  0  0  0  0  0  0  0
   -2.8322   -1.3857    0.5950 C   0  0  0  0  0  0  0  0  0  0  0  0
   -2.4431    3.3569   -0.0906 C   0  0  0  0  0  0  0  0  0  0  0  0
   -3.4798   -0.0563    0.6401 C   0  0  0  0  0  0  0  0  0  0  0  0
   -3.1697    2.2884    0.2644 C   0  0  0  0  0  0  0  0  0  0  0  0
    1.3776    2.7731   -1.9527 C   0  0  0  0  0  0  0  0  0  0  0  0
   -2.9798    4.7540   -0.0876 C   0  0  0  0  0  0  0  0  0  0  0  0
    2.9840    1.2076    0.3138 C   0  0  0  0  0  0  0  0  0  0  0  0
    3.7571    1.2900    1.5000 C   0  0  0  0  0  0  0  0  0  0  0  0
    3.5591    0.5069   -0.7769 C   0  0  0  0  0  0  0  0  0  0  0  0
    5.0225    0.7101    1.5896 C   0  0  0  0  0  0  0  0  0  0  0  0
    4.8246   -0.0731   -0.6873 C   0  0  0  0  0  0  0  0  0  0  0  0
    5.5562    0.0285    0.4960 C   0  0  0  0  0  0  0  0  0  0  0  0
   -1.9897   -4.4883    0.8821 H   0  0  0  0  0  0  0  0  0  0  0  0
   -2.7871   -3.7431   -0.5201 H   0  0  0  0  0  0  0  0  0  0  0  0
    0.9644   -2.1279    0.6816 H   0  0  0  0  0  0  0  0  0  0  0  0
    0.3397   -3.5023    1.6019 H   0  0  0  0  0  0  0  0  0  0  0  0
    0.9614    0.7512   -1.4486 H   0  0  0  0  0  0  0  0  0  0  0  0
   -1.6083   -5.8266   -1.1513 H   0  0  0  0  0  0  0  0  0  0  0  0
   -0.9708   -4.4255   -2.0249 H   0  0  0  0  0  0  0  0  0  0  0  0
    1.1408   -3.5277   -1.3707 H   0  0  0  0  0  0  0  0  0  0  0  0
    2.0102   -4.2881   -0.0297 H   0  0  0  0  0  0  0  0  0  0  0  0
   -0.5240    4.0657   -0.7575 H   0  0  0  0  0  0  0  0  0  0  0  0
   -3.4525   -2.2139    0.9210 H   0  0  0  0  0  0  0  0  0  0  0  0
   -4.2032    2.3997    0.5759 H   0  0  0  0  0  0  0  0  0  0  0  0
    1.5310    3.7576   -1.4950 H   0  0  0  0  0  0  0  0  0  0  0  0
    2.3404    2.4985   -2.3970 H   0  0  0  0  0  0  0  0  0  0  0  0
    0.6713    2.8802   -2.7843 H   0  0  0  0  0  0  0  0  0  0  0  0
    1.4342    2.3354    1.0128 H   0  0  0  0  0  0  0  0  0  0  0  0
   -2.4021    5.3875    0.5940 H   0  0  0  0  0  0  0  0  0  0  0  0
   -4.0259    4.7882    0.2355 H   0  0  0  0  0  0  0  0  0  0  0  0
   -2.9296    5.1883   -1.0920 H   0  0  0  0  0  0  0  0  0  0  0  0
    3.3589    1.8172    2.3651 H   0  0  0  0  0  0  0  0  0  0  0  0
    3.0376    0.3877   -1.7219 H   0  0  0  0  0  0  0  0  0  0  0  0
    5.5922    0.7889    2.5109 H   0  0  0  0  0  0  0  0  0  0  0  0
    5.2404   -0.6055   -1.5379 H   0  0  0  0  0  0  0  0  0  0  0  0
    6.5412   -0.4236    0.5659 H   0  0  0  0  0  0  0  0  0  0  0  0
  1 13  1  0  0  0  0
  1 14  1  0  0  0  0
  2 18  2  0  0  0  0
  3  8  1  0  0  0  0
  3  9  1  0  0  0  0
  3 12  1  0  0  0  0
  4 11  1  0  0  0  0
  4 18  1  0  0  0  0
  4 19  1  0  0  0  0
  5 11  2  0  0  0  0
  5 12  1  0  0  0  0
  6 10  1  0  0  0  0
  6 22  1  0  0  0  0
  6 43  1  0  0  0  0
  7 10  1  0  0  0  0
  7 11  1  0  0  0  0
  7 15  2  0  0  0  0
  8 13  1  0  0  0  0
  8 28  1  0  0  0  0
  8 29  1  0  0  0  0
  9 14  1  0  0  0  0
  9 30  1  0  0  0  0
  9 31  1  0  0  0  0
 10 20  1  0  0  0  0
 10 32  1  0  0  0  0
 12 16  2  0  0  0  0
 13 33  1  0  0  0  0
 13 34  1  0  0  0  0
 14 35  1  0  0  0  0
 14 36  1  0  0  0  0
 15 17  1  0  0  0  0
 15 37  1  0  0  0  0
 16 18  1  0  0  0  0
 16 38  1  0  0  0  0
 17 19  2  0  0  0  0
 17 21  1  0  0  0  0
 19 39  1  0  0  0  0
 20 40  1  0  0  0  0
 20 41  1  0  0  0  0
 20 42  1  0  0  0  0
 21 44  1  0  0  0  0
 21 45  1  0  0  0  0
 21 46  1  0  0  0  0
 22 23  2  0  0  0  0
 22 24  1  0  0  0  0
 23 25  1  0  0  0  0
 23 47  1  0  0  0  0
 24 26  2  0  0  0  0
 24 48  1  0  0  0  0
 25 27  2  0  0  0  0
 25 49  1  0  0  0  0
 26 27  1  0  0  0  0
 26 50  1  0  0  0  0
 27 51  1  0  0  0  0
M  END
> <PUBCHEM_COMPOUND_CID>
9907093

> <PUBCHEM_CONFORMER_RMSD>
0.8

> <PUBCHEM_CONFORMER_DIVERSEORDER>
2
22
30
6
1
34
29
43
37
3
36
15
23
33
40
12
8
27
4
31
20
14
39
28
16
5
41
11
32
13
24
25
19
10
35
26
38
17
21
42
44
9
7
18

> <PUBCHEM_MMFF94_PARTIAL_CHARGES>
35
1 -0.56
10 0.51
11 0.5
12 0.27
13 0.28
14 0.28
15 -0.15
16 -0.14
17 -0.14
18 0.62
19 -0.04
2 -0.57
21 0.14
22 0.1
23 -0.15
24 -0.15
25 -0.15
26 -0.15
27 -0.15
3 -0.84
37 0.15
38 0.15
39 0.15
4 -0.23
43 0.4
47 0.15
48 0.15
49 0.15
5 -0.62
50 0.15
51 0.15
6 -0.87
7 -0.12
8 0.37
9 0.37

> <PUBCHEM_EFFECTIVE_ROTOR_COUNT>
5.2

> <PUBCHEM_PHARMACOPHORE_FEATURES>
9
1 1 acceptor
1 2 acceptor
1 3 cation
1 6 cation
1 6 donor
6 1 3 8 9 13 14 rings
6 22 23 24 25 26 27 rings
6 4 5 11 12 16 18 rings
6 4 7 11 15 17 19 rings

> <PUBCHEM_HEAVY_ATOM_COUNT>
27

> <PUBCHEM_ATOM_DEF_STEREO_COUNT>
0

> <PUBCHEM_ATOM_UDEF_STEREO_COUNT>
1

> <PUBCHEM_BOND_DEF_STEREO_COUNT>
0

> <PUBCHEM_BOND_UDEF_STEREO_COUNT>
0

> <PUBCHEM_ISOTOPIC_ATOM_COUNT>
0

> <PUBCHEM_COMPONENT_COUNT>
1

> <PUBCHEM_CACTVS_TAUTO_COUNT>
1

> <PUBCHEM_CONFORMER_ID>
00972B9500000002

> <PUBCHEM_MMFF94_ENERGY>
93.1515

> <PUBCHEM_FEATURE_SELFOVERLAP>
45.704

> <PUBCHEM_SHAPE_FINGERPRINT>
10675989 125 16825014756042715407
10940486 97 18334584585616715380
1100329 8 17905888433425248795
11014199 57 17905889537273827458
11049842 53 17974315143520234940
11200772 71 18044402598000491452
11513181 2 18127966412949626839
11720765 8 16549149427748860391
12156800 1 15291332005089771552
12553582 1 17185046500845826158
12788726 201 18190191259305019352
13140716 1 18118970423347953137
13402501 40 18269846337431855678
13540713 4 17539421925506164673
138480 1 17186437941695909022
14178342 30 18262805046928080061
14251757 5 18265350554460022636
14844126 61 18263914591994345472
15042514 8 18265055906576100011
15230672 131 18192714441830007734
15403338 16 16951387854761308379
15420108 30 18272380729029617763
15439362 3 17544469756690994396
15927050 60 18052816949448991381
16728300 4 17895460458740766563
19591789 44 18266182738343022638
20028762 73 18271247222519396591
20600515 1 18055926626009475281
20775438 99 16830898187228609615
20775530 9 17760645167682790182
21033648 29 18272076176576993208
21796203 349 17250929177721310490
22113638 7 18192993944419093431
23559900 14 17546722656189672579
23728640 28 18409448119614909729
238918 7 18343019957009422758
3027735 51 18339910542235968661
3298306 158 18126002668181416550
3882209 13 17334747152541526270
4017518 198 18340197476311661846
463206 1 17181656702740385314
508706 21 18343026618604075406
5265222 85 18337691741310068646
532947 4 17979353058120923325
5385378 56 17908148681286910577
59755656 215 18337675200932517125
602551 16 18410290320580586000
7097593 13 17616259516720401933

> <PUBCHEM_SHAPE_MULTIPOLES>
523.98
8.38
7.09
1.19
10.08
7.73
0.07
-4.59
-3.08
-5.68
2.12
0.94
-0.38
0.23

> <PUBCHEM_SHAPE_SELFOVERLAP>
1131.842

> <PUBCHEM_SHAPE_VOLUME>
286.5

> <PUBCHEM_COORDINATE_TYPE>
2
5
10

$$$$
